LTspice 24.0.9 for Windows
Circuit: * C:\Users\susmi\OneDrive\Documents\LTspice\Current mirror.asc
Start Time: Sun Aug 25 21:16:09 2024
solver = Normal
Maximum thread count: 16
tnom = 27
temp = 27
method = modified trap
Instance "m2": Length shorter than recommended for a level 1 MOSFET.
Instance "m3": Length shorter than recommended for a level 1 MOSFET.
Instance "mo": Length shorter than recommended for a level 1 MOSFET.
Instance "mo": Width narrower than recommended for a level 1 MOSFET.
Instance "m1": Length shorter than recommended for a level 1 MOSFET.
Instance "m1": Width narrower than recommended for a level 1 MOSFET.
Direct Newton iteration for .op point succeeded.


Measurement "iref" FAIL'ed
iout: id(m3)=8.78913e-06 at 0.003

Measurement "ratio" FAIL'ed

Total elapsed time: 0.061 seconds.

